Version 4
SHEET 1 880 680
WIRE 192 64 16 64
WIRE 16 96 16 64
WIRE 192 176 192 64
WIRE 16 208 16 176
WIRE 144 256 -96 256
WIRE 192 256 192 224
WIRE -96 272 -96 256
WIRE 192 288 192 272
WIRE -96 384 -96 352
FLAG 192 288 0
FLAG 16 208 0
FLAG -96 384 0
SYMBOL nmos4 144 176 R0
SYMATTR InstName M1
SYMBOL voltage 16 80 R0
WINDOW 123 0 0 Left 0
WINDOW 39 0 0 Left 0
WINDOW 0 39 35 Left 2
SYMATTR InstName Vds
SYMATTR Value 5
SYMBOL voltage -96 256 R0
WINDOW 3 35 91 Left 2
WINDOW 123 0 0 Left 0
WINDOW 39 0 0 Left 0
SYMATTR Value 5
SYMATTR InstName Vgs
TEXT 184 360 Left 2 !.include cmosedu_models.txt
TEXT 184 400 Left 2 !.dc Vds 0 5 0.01 Vgs 0 5 0.5
